Version 4
SHEET 1 880 680
WIRE -304 -128 -752 -128
WIRE -16 -128 -304 -128
WIRE 176 -128 -16 -128
WIRE 336 -128 176 -128
WIRE 176 -80 176 -128
WIRE -464 -64 -560 -64
WIRE -560 -16 -560 -64
WIRE 176 16 176 0
WIRE 272 16 176 16
WIRE -752 80 -752 -128
WIRE -560 80 -560 64
WIRE 336 80 336 -128
WIRE -304 128 -304 -128
WIRE -304 128 -336 128
WIRE -16 128 -16 -128
WIRE -16 128 -48 128
WIRE 272 128 272 16
WIRE -464 144 -464 -64
WIRE -400 144 -464 144
WIRE -112 144 -256 144
WIRE -304 160 -336 160
WIRE -16 160 -48 160
WIRE 176 160 176 16
WIRE 176 160 80 160
WIRE -752 176 -752 160
WIRE -752 176 -848 176
WIRE -544 176 -560 176
WIRE -432 176 -464 176
WIRE -400 176 -432 176
WIRE -112 176 -176 176
WIRE -848 192 -848 176
WIRE -288 192 -336 192
WIRE -256 192 -256 144
WIRE -256 192 -288 192
WIRE 80 192 80 160
WIRE 80 192 -48 192
WIRE -752 208 -752 176
WIRE -560 208 -560 176
WIRE 336 208 336 176
WIRE 464 208 336 208
WIRE 592 208 464 208
WIRE 656 208 592 208
WIRE 336 224 336 208
WIRE 592 240 592 208
WIRE 176 272 176 160
WIRE 272 272 176 272
WIRE -432 304 -432 176
WIRE -416 304 -432 304
WIRE -288 304 -288 192
WIRE -288 304 -336 304
WIRE 176 320 176 272
WIRE 592 368 592 320
WIRE -752 384 -752 288
WIRE -336 384 -752 384
WIRE -304 384 -304 160
WIRE -304 384 -336 384
WIRE -336 416 -336 384
WIRE -16 416 -16 160
WIRE -16 416 -336 416
WIRE 176 416 176 400
WIRE 176 416 -16 416
WIRE 336 416 336 320
WIRE 336 416 176 416
WIRE -176 464 -176 176
WIRE 464 464 464 208
WIRE 464 464 -176 464
FLAG -848 192 0
FLAG -560 208 0
FLAG 592 368 0
FLAG -560 80 0
FLAG 656 208 out
SYMBOL voltage -752 64 R0
WINDOW 123 0 0 Left 0
WINDOW 39 0 0 Left 0
SYMATTR InstName V1
SYMATTR Value 9V
SYMBOL voltage -752 192 R0
WINDOW 123 0 0 Left 0
WINDOW 39 0 0 Left 0
SYMATTR InstName V2
SYMATTR Value 9V
SYMBOL res -448 160 R90
WINDOW 0 0 56 VBottom 2
WINDOW 3 32 56 VTop 2
SYMATTR InstName R1
SYMATTR Value 10k
SYMBOL res -320 288 R90
WINDOW 0 0 56 VBottom 2
WINDOW 3 32 56 VTop 2
SYMATTR InstName R2
SYMATTR Value 30k
SYMBOL res 576 224 R0
SYMATTR InstName R5
SYMATTR Value 100
SYMBOL voltage -560 -32 R0
WINDOW 123 0 0 Left 0
WINDOW 39 0 0 Left 0
SYMATTR InstName V3
SYMATTR Value SINE(0 1 1000 0)
SYMBOL res 160 -96 R0
SYMATTR InstName R3
SYMATTR Value 10k
SYMBOL res 160 304 R0
SYMATTR InstName R4
SYMATTR Value 10k
SYMBOL npn 272 80 R0
SYMATTR InstName Q1
SYMBOL pnp 272 224 R0
SYMATTR InstName Q2
SYMBOL TL082 -368 160 R0
SYMATTR InstName U1
SYMBOL TL082 -80 160 R0
SYMATTR InstName U2
TEXT -864 472 Left 2 !.tran 0 10m 0 1u
